IEEE data/011_bus/ieee/011ieee.dat
 00/00/01                      100.0  0    0 0                                                                                                                                                                                                                                                             
BUS DATA FOLLOWS                   11 ITEMS
   1 bus_1   100   1  1  3 1.024 0.     0.       0.        65.8021237.76864 100.    1.024  999900 -99990    0.     -0.791     0                                                                                                                                                                            
   2 bus_2   100   1  1    1.056 -2.464 0.       0.        0.      0.       100.    1.       0.     0.      0.      0.75      0                                                                                                                                                                            
   3 bus_3   100   1  1    1.045 -4.164 12.8     6.2       0.      0.       100.    1.       0.     0.      0.      0.001     0                                                                                                                                                                            
   4 bus_4   100   1  1    1.029 -2.907 0.       0.        0.      0.       100.    1.       0.     0.     -0.001  -1.223     0                                                                                                                                                                            
   5 bus_5   100   1  1    1.033 -4.913 16.5     8.        0.      0.       100.    1.       0.     0.      0.      0.077     0                                                                                                                                                                            
   6 bus_6   100   1  1    1.049 -2.992 9.       6.8       0.      0.       100.    1.       0.     0.      0.      1.142     0                                                                                                                                                                            
   7 bus_7   100   1  1    0.778 -12.58 0.       0.        0.      0.       100.    1.       0.     0.      0.421  -0.559     0                                                                                                                                                                            
   8 bus_8   100   1  1    0.863 -15.62 0.       0.        0.      0.       100.    1.       0.     0.     -0.309   0.033     0                                                                                                                                                                            
   9 bus_9   100   1  1    1.133 -16.67 2.6      0.9       0.      0.       100.    1.       0.     0.     -0.034   0.337     0                                                                                                                                                                            
  10 bus_10  100   1  1    0.754 -22.7  0.       0.        0.      0.       100.    1.       0.     0.      0.121  -1.205     0                                                                                                                                                                            
  11 bus_11  100   1  1    0.985 -25.9  15.8     5.7       0.      0.       100.    1.       0.     0.     -0.091   0.957     0                                                                                                                                                                            
-999
BRANCH DATA FOLLOWS                   11 ITEMS
   1    2  1  1      0.        0.07068     0.     0    0     0      0    0  0      0      0      0       0      0      0                                                                                                                                                                                   
   2    3  1  1      0.        0.15399     0.     0    0     0      0    0  0      0      0      0       0      0      0                                                                                                                                                                                   
   2    4  1  1      0.03773   0.04132     0.     0    0     0      0    0  0      0      0      0       0      0      0                                                                                                                                                                                   
   3    5  1  1      0.1228    0.18027     0.     0    0     0      0    0  0      0      0      0       0      0      0                                                                                                                                                                                   
   4    5  1  1      0.        0.45935     0.     0    0     0      0    0  0      0      0      0       0      0      0                                                                                                                                                                                   
   4    6  1  1      0.        0.01764     0.     0    0     0      0    0  0      0      0      0       0      0      0                                                                                                                                                                                   
   4    7  1  1      0.61141   0.81177     0.     0    0     0      0    0  0      0      0      0       0      0      0                                                                                                                                                                                   
   7    8  1  1      0.16209   0.21673     0.     0    0     0      0    0  0      0      0      0       0      0      0                                                                                                                                                                                   
   8    9  1  1      0.07185   0.71797     0.     0    0     0      0    0  0      0      0      0       0      0      0                                                                                                                                                                                   
   8   10  1  1      0.40977   0.56        0.     0    0     0      0    0  0      0      0      0       0      0      0                                                                                                                                                                                   
  10   11  1  1      0.02645   0.26459     0.     0    0     0      0    0  0      0      0      0       0      0      0                                                                                                                                                                                   
-999
LOSS ZONES FOLLOWS   0 ITEMS
-99
INTERCHANGE DATA FOLLOWS      0 ITEMS
-9
TIE LINES FOLLOWS             0 ITEMS
-999
END OF DATA